12

C          1.09415       -0.02941        0.00297
C          2.60974       -0.05843        0.01886
O          3.09772        1.11776       -0.62376
C          4.51831        1.15098       -0.63989
H          0.68391       -0.91880        0.48890
H          0.71963        0.01682       -1.02497
H          0.71952        0.86055        0.51929
H          2.96984       -0.94510       -0.51389
H          2.96973       -0.08945        1.05351
H          4.83657        2.06877       -1.14149
H          4.91475        0.29437       -1.19323
H          4.91257        1.15545        0.38081
