22
oct.xyz
H          1.02189        0.06132       -0.05016
C          2.10377       -0.00280       -0.07060
C          2.64917       -1.01997        0.59043
H          1.96401       -1.68900        1.09952
C          4.08996       -1.41477        0.79166
C          5.19640       -0.57693        0.15420
C          5.48279        0.75495        0.85923
H          6.05473        0.53320        1.76329
C          4.27290        1.59151        1.27414
H          3.63201        0.99542        1.92171
H          4.63043        2.42398        1.88221
C          3.42590        2.16102        0.13923
C          2.79659        1.11809       -0.79581
H          4.18832       -2.44884        0.45142
H          4.27257       -1.46252        1.87092
H          4.98122       -0.43117       -0.90028
H          6.11735       -1.16148        0.18412
H          6.13706        1.35672        0.22590
H          4.03244        2.84619       -0.45628
H          2.62457        2.75259        0.58360
H          3.55629        0.72399       -1.46467
H          2.07504        1.62494       -1.43634
