11

C          1.06676        0.01081        0.05258
C          2.58577        0.03265        0.07016
C          3.11833        1.14576        0.95663
H          0.70604       -0.79752       -0.59131
H          0.66538        0.95483       -0.32973
H          0.66546       -0.15077        1.05815
H          2.96083        0.16777       -0.95039
H          2.96074       -0.93179        0.43014
H          2.78036        2.12488        0.60243
H          4.21283        1.14250        0.95394
H          2.78054        1.01917        1.99022
